REMARK  8 active torsions:
REMARK  status: ('A' for Active; 'I' for Inactive)
REMARK    1  A    between atoms: C11_4  and  N9_20 
REMARK    2  A    between atoms: C14_5  and  O17_18 
REMARK    3  A    between atoms: C2_8  and  C4_9 
REMARK    4  A    between atoms: C4_9  and  C5_11 
REMARK       I    between atoms: C7_10  and  N9_20 
REMARK    5  A    between atoms: C7_10  and  C5_11 
REMARK    6  A    between atoms: C5_11  and  N6_23 
REMARK    7  A    between atoms: C19_16  and  C18_17 
REMARK    8  A    between atoms: C18_17  and  O17_18 
ROOT
HETATM    1  C12 4BO A 901       8.561  41.867  67.920  1.00 27.70     0.032 A 
HETATM    2  C13 4BO A 901       7.744  41.011  68.682  1.00 24.72     0.039 A 
HETATM    3  C11 4BO A 901       9.565  41.340  67.089  1.00 28.67     0.035 A 
HETATM    4  C14 4BO A 901       7.913  39.615  68.616  1.00 25.28     0.075 A 
HETATM    5  C15 4BO A 901       8.911  39.085  67.776  1.00 24.74     0.039 A 
HETATM    6  C16 4BO A 901       9.727  39.939  67.025  1.00 26.98     0.032 A 
ENDROOT
BRANCH   3   7
HETATM    7  N9  4BO A 901      10.428  42.199  66.479  1.00 29.83    -0.325 N 
HETATM    8  C7  4BO A 901      11.536  41.827  65.791  1.00 36.17     0.253 C 
HETATM    9  O8  4BO A 901      11.951  40.672  65.695  1.00 40.55    -0.271 OA
ATOM     10  H9  4BO A 901      10.226  43.197  66.544  1.00  0.00     0.169 HD
BRANCH   8  11
HETATM   11  C5  4BO A 901      12.326  42.990  65.162  1.00 38.13     0.284 C 
BRANCH  11  12
HETATM   12  C4  4BO A 901      13.851  42.874  65.402  1.00 42.09     0.155 C 
BRANCH  12  13
HETATM   13  C2  4BO A 901      14.524  41.776  64.542  1.00 47.02     0.175 C 
HETATM   14  O1  4BO A 901      13.824  41.222  63.659  1.00 35.63    -0.648 OA
HETATM   15  O3  4BO A 901      15.732  41.524  64.788  1.00 49.15    -0.648 OA
ENDBRANCH  12  13
ENDBRANCH  11  12
BRANCH  11  16
HETATM   16  N6  4BO A 901      11.839  44.252  65.699  1.00 43.14    -0.066 N 
ATOM     17  H63 4BO A 901      12.083  44.371  66.682  1.00  0.00     0.275 HD
ATOM     18  H62 4BO A 901      12.349  45.052  65.323  1.00  0.00     0.275 HD
ATOM     19  H61 4BO A 901      10.834  44.328  65.541  1.00  0.00     0.275 HD
ENDBRANCH  11  16
ENDBRANCH   8  11
ENDBRANCH   3   7
BRANCH   4  20
HETATM   20  O17 4BO A 901       7.102  38.797  69.386  1.00 26.29    -0.322 OA
BRANCH  20  21
HETATM   21  C18 4BO A 901       7.635  37.454  69.632  1.00 28.22     0.153 C 
BRANCH  21  22
HETATM   22  C19 4BO A 901       8.321  37.110  70.802  1.00 35.38    -0.014 A 
HETATM   23  C20 4BO A 901       8.465  35.753  71.137  1.00 31.14     0.013 A 
HETATM   24  C21 4BO A 901       9.182  35.379  72.283  1.00 34.08     0.001 A 
HETATM   25  C22 4BO A 901       9.755  36.358  73.102  1.00 36.23     0.000 A 
HETATM   26  C23 4BO A 901       9.611  37.718  72.774  1.00 34.67     0.001 A 
HETATM   27  C24 4BO A 901       8.895  38.096  71.628  1.00 32.44     0.013 A 
ENDBRANCH  21  22
ENDBRANCH  20  21
ENDBRANCH   4  20
TORSDOF 8
