REMARK  11 active torsions:
REMARK  status: ('A' for Active; 'I' for Inactive)
REMARK       I    between atoms: C8_2  and  N10_13 
REMARK    1  A    between atoms: C8_2  and  C7_3 
REMARK    2  A    between atoms: C7_3  and  C6_4 
REMARK    3  A    between atoms: C6_4  and  C4_5 
REMARK    4  A    between atoms: C4_5  and  C2_10 
REMARK    5  A    between atoms: C4_5  and  N5_6 
REMARK    6  A    between atoms: N10_13  and  C12_15 
REMARK    7  A    between atoms: C15_18  and  O18_21 
REMARK    8  A    between atoms: O18_21  and  C19_22 
REMARK    9  A    between atoms: C19_22  and  C20_23 
REMARK   10  A    between atoms: C20_23  and  O21_24 
REMARK   11  A    between atoms: C20_23  and  C23_26 
ROOT
HETATM    1  C12 4BU A 901       9.549  41.328  66.897  1.00 33.33     0.034 A 
HETATM    2  C13 4BU A 901       8.628  41.902  67.813  1.00 31.67     0.032 A 
HETATM    3  C14 4BU A 901       7.895  41.073  68.698  1.00 31.79     0.039 A 
HETATM    4  C15 4BU A 901       8.071  39.669  68.693  1.00 32.56     0.069 A 
HETATM    5  C16 4BU A 901       8.980  39.095  67.783  1.00 32.45     0.039 A 
HETATM    6  C17 4BU A 901       9.706  39.914  66.898  1.00 32.55     0.032 A 
ENDROOT
BRANCH   1   7
HETATM    7  N10 4BU A 901      10.243  42.160  66.062  1.00 35.46    -0.327 N 
HETATM    8  C8  4BU A 901      11.565  42.071  65.719  1.00 36.33     0.222 C 
HETATM    9  O9  4BU A 901      12.187  40.989  65.876  1.00 36.62    -0.273 OA
ATOM     10  H10 4BU A 901       9.718  42.931  65.650  1.00  0.00     0.169 HD
BRANCH   8  11
HETATM   11  C7  4BU A 901      12.227  43.283  65.148  1.00 36.57     0.106 C 
BRANCH  11  12
HETATM   12  C6  4BU A 901      13.745  42.879  65.152  1.00 38.29     0.053 C 
BRANCH  12  13
HETATM   13  C4  4BU A 901      14.424  42.082  63.984  1.00 40.56     0.283 C 
BRANCH  13  14
HETATM   14  C2  4BU A 901      15.827  41.697  64.224  1.00 41.64     0.204 C 
HETATM   15  O3  4BU A 901      16.799  42.389  63.872  1.00 43.42    -0.646 OA
HETATM   16  O1  4BU A 901      16.081  40.618  64.799  1.00 43.59    -0.646 OA
ENDBRANCH  13  14
BRANCH  13  17
HETATM   17  N5  4BU A 901      13.719  40.821  63.687  1.00 40.16    -0.065 N 
ATOM     18  H53 4BU A 901      14.135  40.287  62.924  1.00  0.00     0.275 HD
ATOM     19  H52 4BU A 901      13.832  40.107  64.407  1.00  0.00     0.275 HD
ATOM     20  H51 4BU A 901      12.748  41.087  63.521  1.00  0.00     0.275 HD
ENDBRANCH  13  17
ENDBRANCH  12  13
ENDBRANCH  11  12
ENDBRANCH   8  11
ENDBRANCH   1   7
BRANCH   4  21
HETATM   21  O18 4BU A 901       7.342  38.936  69.582  1.00 34.58    -0.348 OA
BRANCH  21  22
HETATM   22  C19 4BU A 901       7.413  37.558  70.011  1.00 34.75     0.212 C 
BRANCH  22  23
HETATM   23  C20 4BU A 901       8.274  37.709  71.307  1.00 35.65     0.175 C 
BRANCH  23  24
HETATM   24  O21 4BU A 901       7.476  38.490  72.207  1.00 35.06    -0.389 OA
ATOM     25  H21 4BU A 901       7.999  38.582  72.995  1.00  0.00     0.210 HD
ENDBRANCH  23  24
BRANCH  23  26
HETATM   26  C23 4BU A 901       8.825  36.464  71.942  1.00 35.17    -0.028 A 
HETATM   27  C24 4BU A 901       8.658  35.159  71.403  1.00 34.55     0.010 A 
HETATM   28  C25 4BU A 901       9.226  34.032  72.032  1.00 33.78     0.001 A 
HETATM   29  C26 4BU A 901       9.967  34.196  73.217  1.00 34.01     0.000 A 
HETATM   30  C27 4BU A 901      10.139  35.476  73.782  1.00 33.64     0.001 A 
HETATM   31  C28 4BU A 901       9.578  36.599  73.145  1.00 34.04     0.010 A 
ENDBRANCH  23  26
ENDBRANCH  22  23
ENDBRANCH  21  22
ENDBRANCH   4  21
TORSDOF 11
