REMARK  9 active torsions:
REMARK  status: ('A' for Active; 'I' for Inactive)
REMARK    1  A    between atoms: C20_6  and  C19_7 
REMARK    2  A    between atoms: C19_7  and  O18_8 
REMARK    3  A    between atoms: O18_8  and  C15_9 
REMARK    4  A    between atoms: C12_14  and  N10_15 
REMARK       I    between atoms: N10_15  and  C8_17 
REMARK    5  A    between atoms: C8_17  and  C7_19 
REMARK    6  A    between atoms: C7_19  and  C6_20 
REMARK    7  A    between atoms: C6_20  and  C4_21 
REMARK    8  A    between atoms: C4_21  and  N5_25 
REMARK    9  A    between atoms: C4_21  and  C2_22 
ROOT
HETATM    1  C15 4BQ A 901       7.675  40.196  69.096  1.00 13.23     0.075 A 
HETATM    2  C16 4BQ A 901       8.789  39.592  68.461  1.00 12.71     0.039 A 
HETATM    3  C17 4BQ A 901       9.685  40.375  67.708  1.00 13.25     0.032 A 
HETATM    4  C14 4BQ A 901       7.477  41.578  68.954  1.00 14.58     0.039 A 
HETATM    5  C13 4BQ A 901       8.370  42.358  68.199  1.00 14.48     0.032 A 
HETATM    6  C12 4BQ A 901       9.483  41.769  67.575  1.00 14.65     0.034 A 
ENDROOT
BRANCH   6   7
HETATM    7  N10 4BQ A 901      10.382  42.593  66.975  1.00 17.51    -0.327 N 
HETATM    8  C8  4BQ A 901      11.573  42.222  66.462  1.00 17.80     0.222 C 
HETATM    9  O9  4BQ A 901      12.071  41.095  66.557  1.00 18.24    -0.273 OA
ATOM     10  H10 4BQ A 901      10.134  43.580  66.907  1.00  0.00     0.169 HD
BRANCH   8  11
HETATM   11  C7  4BQ A 901      12.362  43.375  65.828  1.00 18.00     0.106 C 
BRANCH  11  12
HETATM   12  C6  4BQ A 901      13.874  43.105  65.830  1.00 20.43     0.053 C 
BRANCH  12  13
HETATM   13  C4  4BQ A 901      14.356  42.332  64.584  1.00 24.91     0.283 C 
BRANCH  13  14
HETATM   14  N5  4BQ A 901      13.501  41.160  64.322  1.00 25.15    -0.065 N 
ATOM     15  H53 4BQ A 901      13.860  40.576  63.567  1.00  0.00     0.275 HD
ATOM     16  H52 4BQ A 901      13.548  40.468  65.070  1.00  0.00     0.275 HD
ATOM     17  H51 4BQ A 901      12.549  41.482  64.147  1.00  0.00     0.275 HD
ENDBRANCH  13  14
BRANCH  13  18
HETATM   18  C2  4BQ A 901      15.779  41.850  64.845  1.00 24.04     0.204 C 
HETATM   19  O1  4BQ A 901      15.905  40.869  65.602  1.00 22.87    -0.646 OA
HETATM   20  O3  4BQ A 901      16.707  42.479  64.301  1.00 27.90    -0.646 OA
ENDBRANCH  13  18
ENDBRANCH  12  13
ENDBRANCH  11  12
ENDBRANCH   8  11
ENDBRANCH   6   7
BRANCH   1  21
HETATM   21  O18 4BQ A 901       6.769  39.478  69.865  1.00 17.11    -0.322 OA
BRANCH  21  22
HETATM   22  C19 4BQ A 901       7.027  38.045  69.971  1.00 16.92     0.153 C 
BRANCH  22  23
HETATM   23  C20 4BQ A 901       7.694  37.499  71.078  1.00 19.65    -0.014 A 
HETATM   24  C25 4BQ A 901       7.910  36.113  71.139  1.00 16.58     0.013 A 
HETATM   25  C24 4BQ A 901       8.596  35.550  72.228  1.00 16.96     0.001 A 
HETATM   26  C23 4BQ A 901       9.068  36.375  73.263  1.00 19.47     0.000 A 
HETATM   27  C22 4BQ A 901       8.853  37.762  73.208  1.00 18.52     0.001 A 
HETATM   28  C21 4BQ A 901       8.165  38.326  72.119  1.00 18.72     0.013 A 
ENDBRANCH  22  23
ENDBRANCH  21  22
ENDBRANCH   1  21
TORSDOF 9
