@<TRIPOS>MOLECULE
../3chp_ligand_2
41 42 1
SMALL
GASTEIGER


@<TRIPOS>ATOM
      1 C12         8.5610   41.8670   67.9200 C.ar    613 4BO901      0.0000
      2 C13         7.7440   41.0110   68.6820 C.ar    613 4BO901      0.0000
      3 C11         9.5650   41.3400   67.0890 C.ar    613 4BO901      0.0000
      4 H12         8.4151   42.9398   67.9742 H       613 4BO901      0.0000
      5 C14         7.9130   39.6150   68.6160 C.ar    613 4BO901      0.0000
      6 H13         6.9784   41.4301   69.3249 H       613 4BO901      0.0000
      7 C16         9.7270   39.9390   67.0250 C.ar    613 4BO901      0.0000
      8 N9         10.4280   42.1990   66.4790 N.am    613 4BO901      0.0000
      9 O17         7.1020   38.7970   69.3860 O.3     613 4BO901      0.0000
     10 C15         8.9110   39.0850   67.7760 C.ar    613 4BO901      0.0000
     11 H16        10.4944   39.5186   66.3851 H       613 4BO901      0.0000
     12 C7         11.5360   41.8270   65.7910 C.2     613 4BO901      0.0000
     13 H9         10.2299   43.1771   66.5432 H       613 4BO901      0.0000
     14 C18         7.6350   37.4540   69.6320 C.3     613 4BO901      0.0000
     15 H15         9.0479   38.0117   67.7107 H       613 4BO901      0.0000
     16 C5         12.3260   42.9900   65.1620 C.3     613 4BO901      0.0000
     17 O8         11.9510   40.6720   65.6950 O.2     613 4BO901      0.0000
     18 C19         8.3210   37.1100   70.8020 C.ar    613 4BO901      0.0000
     19 H181        6.7882   36.7533   69.5886 H       613 4BO901      0.0000
     20 H182        8.3399   37.2281   68.8183 H       613 4BO901      0.0000
     21 C4         13.8510   42.8740   65.4020 C.3     613 4BO901      0.0000
     22 N6         11.8390   44.2520   65.6990 N.4     613 4BO901      1.0000
     23 H5         12.1523   42.9705   64.0760 H       613 4BO901      0.0000
     24 C24         8.8950   38.0960   71.6280 C.ar    613 4BO901      0.0000
     25 C20         8.4650   35.7530   71.1370 C.ar    613 4BO901      0.0000
     26 C2         14.5240   41.7760   64.5420 C.2     613 4BO901      0.0000
     27 H41        14.3169   43.8409   65.1612 H       613 4BO901      0.0000
     28 H42        14.0206   42.6395   66.4632 H       613 4BO901      0.0000
     29 H61        10.7686   44.1976   65.8318 H       613 4BO901      0.0000
     30 H62        12.3107   44.4439   66.6514 H       613 4BO901      0.0000
     31 H63        12.0764   45.0510   65.0122 H       613 4BO901      0.0000
     32 C23         9.6110   37.7180   72.7740 C.ar    613 4BO901      0.0000
     33 H24         8.7838   39.1451   71.3788 H       613 4BO901      0.0000
     34 C21         9.1820   35.3790   72.2830 C.ar    613 4BO901      0.0000
     35 H20         8.0199   34.9916   70.5068 H       613 4BO901      0.0000
     36 O1         13.8240   41.2220   63.6590 O.co2   613 4BO901     -0.5000
     37 O3         15.7320   41.5240   64.7880 O.co2   613 4BO901     -0.5000
     38 C22         9.7550   36.3580   73.1020 C.ar    613 4BO901      0.0000
     39 H23        10.0546   38.4767   73.4086 H       613 4BO901      0.0000
     40 H21         9.2923   34.3303   72.5344 H       613 4BO901      0.0000
     41 H22        10.3089   36.0688   73.9877 H       613 4BO901      0.0000
@<TRIPOS>BOND
     1    1    2 ar
     2    1    3 ar
     3    2    5 ar
     4   24   18 ar
     5   24   32 ar
     6    3    7 ar
     7    3    8 1
     8    5    9 1
     9    5   10 ar
    10   10    7 ar
    11   36   26 ar
    12   26   21 1
    13   26   37 ar
    14   21   16 1
    15   12   16 1
    16   12   17 2
    17   12    8 am
    18   16   22 1
    19   25   18 ar
    20   25   34 ar
    21   34   38 ar
    22   38   32 ar
    23   18   14 1
    24   14    9 1
    25    1    4 1
    26    2    6 1
    27   10   15 1
    28    7   11 1
    29   24   33 1
    30   25   35 1
    31   34   40 1
    32   38   41 1
    33   32   39 1
    34   21   27 1
    35   21   28 1
    36   16   23 1
    37   22   29 1
    38   22   30 1
    39   22   31 1
    40    8   13 1
    41   14   19 1
    42   14   20 1
@<TRIPOS>SUBSTRUCTURE
613 4BO901 1
@<TRIPOS>COMMENT


