@<TRIPOS>MOLECULE
../3cho_ligand_1
36 37 1
SMALL
GASTEIGER


@<TRIPOS>ATOM
      1 C1         24.4390   -0.1590    3.5850 C.ar    614 4BG901      0.0000
      2 C2         23.5200    0.4490    4.4520 C.ar    614 4BG901      0.0000
      3 C6         24.7390    0.4320    2.3510 C.ar    614 4BG901      0.0000
      4 H1         24.9184   -1.0884    3.8703 H       614 4BG901      0.0000
      5 C3         22.8920    1.6500    4.0840 C.ar    614 4BG901      0.0000
      6 H2         23.2938   -0.0089    5.4082 H       614 4BG901      0.0000
      7 C5         24.0940    1.6280    1.9770 C.ar    614 4BG901      0.0000
      8 C7         25.9480   -0.0260    1.5520 C.3     614 4BG901      0.0000
      9 C4         23.1740    2.2360    2.8430 C.ar    614 4BG901      0.0000
     10 H3         22.1892    2.1235    4.7600 H       614 4BG901      0.0000
     11 H5         24.3101    2.0798    1.0156 H       614 4BG901      0.0000
     12 O8         26.1420    0.5280    0.3220 O.3     614 4BG901      0.0000
     13 H71        25.8859   -1.1079    1.3633 H       614 4BG901      0.0000
     14 H72        26.8715    0.1971    2.1065 H       614 4BG901      0.0000
     15 H4         22.6820    3.1574    2.5530 H       614 4BG901      0.0000
     16 C9         27.4400    0.4410   -0.0940 C.ar    614 4BG901      0.0000
     17 C12        28.4670    0.6530    0.8410 C.ar    614 4BG901      0.0000
     18 C10        27.7130    0.5220   -1.4690 C.ar    614 4BG901      0.0000
     19 C13        29.7450    0.9960    0.4140 C.ar    614 4BG901      0.0000
     20 H12        28.2621    0.5487    1.9003 H       614 4BG901      0.0000
     21 C11        29.0080    0.8690   -1.8990 C.ar    614 4BG901      0.0000
     22 H10        26.9329    0.3190   -2.1937 H       614 4BG901      0.0000
     23 C14        30.0260    1.1310   -0.9570 C.ar    614 4BG901      0.0000
     24 H13        30.5301    1.1605    1.1431 H       614 4BG901      0.0000
     25 H11        29.2244    0.9353   -2.9591 H       614 4BG901      0.0000
     26 N15        31.1750    1.6990   -1.3930 N.am    614 4BG901      0.0000
     27 C16        32.1290    2.2040   -0.5820 C.2     614 4BG901      0.0000
     28 H15        31.3270    1.7477   -2.3802 H       614 4BG901      0.0000
     29 O17        31.9390    2.5910    0.5750 O.2     614 4BG901      0.0000
     30 C18        33.5070    2.3450   -1.2300 C.3     614 4BG901      0.0000
     31 N19        34.3360    3.2530   -0.4220 N.4     614 4BG901      1.0000
     32 H181       33.4108    2.7627   -2.2430 H       614 4BG901      0.0000
     33 H182       34.0052    1.3657   -1.2830 H       614 4BG901      0.0000
     34 H191       33.7869    4.1617   -0.2243 H       614 4BG901      0.0000
     35 H192       34.5883    2.7743    0.5126 H       614 4BG901      0.0000
     36 H193       35.2414    3.4896   -0.9612 H       614 4BG901      0.0000
@<TRIPOS>BOND
     1    1    2 ar
     2    1    3 ar
     3    2    5 ar
     4    5    9 ar
     5    9    7 ar
     6    7    3 ar
     7    3    8 1
     8    8   12 1
     9   12   16 1
    10   16   17 ar
    11   16   18 ar
    12   17   19 ar
    13   19   23 ar
    14   18   21 ar
    15   21   23 ar
    16   23   26 1
    17   26   27 am
    18   27   29 2
    19   27   30 1
    20   30   31 1
    21    1    4 1
    22    2    6 1
    23    5   10 1
    24    9   15 1
    25    7   11 1
    26   17   20 1
    27   19   24 1
    28   18   22 1
    29   21   25 1
    30   30   32 1
    31   30   33 1
    32   31   34 1
    33   31   35 1
    34   31   36 1
    35   26   28 1
    36    8   13 1
    37    8   14 1
@<TRIPOS>SUBSTRUCTURE
614 4BG901 1
@<TRIPOS>COMMENT


