@<TRIPOS>MOLECULE
../3chs_ligand_1
48 49 1
SMALL
GASTEIGER


@<TRIPOS>ATOM
      1 O9         12.1870   40.9890   65.8760 O.2     616 4BU901      0.0000
      2 C8         11.5650   42.0710   65.7190 C.2     616 4BU901      0.0000
      3 C7         12.2270   43.2830   65.1480 C.3     616 4BU901      0.0000
      4 N10        10.2430   42.1600   66.0620 N.am    616 4BU901      0.0000
      5 C6         13.7450   42.8790   65.1520 C.3     616 4BU901      0.0000
      6 H71        12.0320   44.1593   65.7837 H       616 4BU901      0.0000
      7 H72        11.8549   43.4775   64.1313 H       616 4BU901      0.0000
      8 C12         9.5490   41.3280   66.8970 C.ar    616 4BU901      0.0000
      9 H10         9.7281   42.9160   65.6579 H       616 4BU901      0.0000
     10 C4         14.4240   42.0820   63.9840 C.3     616 4BU901      0.0000
     11 H61        13.8948   42.2728   66.0576 H       616 4BU901      0.0000
     12 H62        14.3085   43.8193   65.2428 H       616 4BU901      0.0000
     13 C13         8.6280   41.9020   67.8130 C.ar    616 4BU901      0.0000
     14 C17         9.7060   39.9140   66.8980 C.ar    616 4BU901      0.0000
     15 N5         13.7190   40.8210   63.6870 N.4     616 4BU901      1.0000
     16 C2         15.8270   41.6970   64.2240 C.2     616 4BU901      0.0000
     17 H4         14.3870   42.7199   63.0886 H       616 4BU901      0.0000
     18 C14         7.8950   41.0730   68.6980 C.ar    616 4BU901      0.0000
     19 H13         8.4855   42.9764   67.8352 H       616 4BU901      0.0000
     20 C16         8.9800   39.0950   67.7830 C.ar    616 4BU901      0.0000
     21 H17        10.4001   39.4573   66.2018 H       616 4BU901      0.0000
     22 H51        14.4357   40.0163   63.6145 H       616 4BU901      0.0000
     23 H52        13.0159   40.6067   64.4783 H       616 4BU901      0.0000
     24 H53        13.1892   40.9166   62.7508 H       616 4BU901      0.0000
     25 O3         16.7990   42.3890   63.8720 O.co2   616 4BU901     -0.5000
     26 O1         16.0810   40.6180   64.7990 O.co2   616 4BU901     -0.5000
     27 C15         8.0710   39.6690   68.6930 C.ar    616 4BU901      0.0000
     28 H14         7.1895   41.5207   69.3886 H       616 4BU901      0.0000
     29 H16         9.1207   38.0203   67.7642 H       616 4BU901      0.0000
     30 O18         7.3420   38.9360   69.5820 O.3     616 4BU901      0.0000
     31 C19         7.4130   37.5580   70.0110 C.3     616 4BU901      0.0000
     32 C20         8.2740   37.7090   71.3070 C.3     616 4BU901      0.0000
     33 H191        7.9009   36.9420   69.2413 H       616 4BU901      0.0000
     34 H192        6.4044   37.1662   70.2093 H       616 4BU901      0.0000
     35 O21         7.4760   38.4900   72.2070 O.3     616 4BU901      0.0000
     36 C23         8.8250   36.4640   71.9420 C.ar    616 4BU901      0.0000
     37 H20         9.1406   38.3234   71.0214 H       616 4BU901      0.0000
     38 H21         6.6976   37.9675   72.3608 H       616 4BU901      0.0000
     39 C24         8.6580   35.1590   71.4030 C.ar    616 4BU901      0.0000
     40 C28         9.5780   36.5990   73.1450 C.ar    616 4BU901      0.0000
     41 C25         9.2260   34.0320   72.0320 C.ar    616 4BU901      0.0000
     42 H24         8.0841   35.0281   70.4928 H       616 4BU901      0.0000
     43 C27        10.1390   35.4760   73.7820 C.ar    616 4BU901      0.0000
     44 H28         9.7210   37.5831   73.5765 H       616 4BU901      0.0000
     45 C26         9.9670   34.1960   73.2170 C.ar    616 4BU901      0.0000
     46 H25         9.0926   33.0446   71.6050 H       616 4BU901      0.0000
     47 H27        10.7001   35.5948   74.7018 H       616 4BU901      0.0000
     48 H26        10.4089   33.3315   73.6990 H       616 4BU901      0.0000
@<TRIPOS>BOND
     1    1    2 2
     2    2    3 1
     3    2    4 am
     4    3    5 1
     5    5   10 1
     6   10   15 1
     7   10   16 1
     8   16   25 ar
     9   16   26 ar
    10    4    8 1
    11    8   13 ar
    12    8   14 ar
    13   13   18 ar
    14   18   27 ar
    15   27   20 ar
    16   27   30 1
    17   20   14 ar
    18   30   31 1
    19   31   32 1
    20   32   35 1
    21   32   36 1
    22   36   39 ar
    23   36   40 ar
    24   39   41 ar
    25   41   45 ar
    26   45   43 ar
    27   43   40 ar
    28   13   19 1
    29   18   28 1
    30   20   29 1
    31   14   21 1
    32   39   42 1
    33   41   46 1
    34   45   48 1
    35   43   47 1
    36   40   44 1
    37    3    6 1
    38    3    7 1
    39    5   11 1
    40    5   12 1
    41   10   17 1
    42   15   22 1
    43   15   23 1
    44   15   24 1
    45   31   33 1
    46   31   34 1
    47   32   37 1
    48    4    9 1
    49   35   38 1
@<TRIPOS>SUBSTRUCTURE
616 4BU901 1
@<TRIPOS>COMMENT


