REMARK  6 active torsions:
REMARK  status: ('A' for Active; 'I' for Inactive)
REMARK    1  A    between atoms: C6_6  and  C7_7 
REMARK    2  A    between atoms: C7_7  and  O8_8 
REMARK    3  A    between atoms: O8_8  and  C9_9 
REMARK    4  A    between atoms: C14_14  and  N15_15 
REMARK       I    between atoms: N15_15  and  C16_17 
REMARK    5  A    between atoms: C16_17  and  C18_19 
REMARK    6  A    between atoms: C18_19  and  N19_20 
ROOT
HETATM    1  C9  4BG A 901      27.440   0.441  -0.094  1.00 22.48     0.069 A 
HETATM    2  C12 4BG A 901      28.467   0.653   0.841  1.00 21.43     0.039 A 
HETATM    3  C13 4BG A 901      29.745   0.996   0.414  1.00 18.06     0.032 A 
HETATM    4  C10 4BG A 901      27.713   0.522  -1.469  1.00 18.66     0.039 A 
HETATM    5  C11 4BG A 901      29.008   0.869  -1.899  1.00 20.51     0.032 A 
HETATM    6  C14 4BG A 901      30.026   1.131  -0.957  1.00 19.69     0.034 A 
ENDROOT
BRANCH   6   7
HETATM    7  N15 4BG A 901      31.175   1.699  -1.393  1.00 19.16    -0.326 N 
HETATM    8  C16 4BG A 901      32.129   2.204  -0.582  1.00 20.09     0.247 C 
HETATM    9  O17 4BG A 901      31.939   2.591   0.575  1.00 17.77    -0.271 OA
ATOM     10  H15 4BG A 901      31.330   1.749  -2.400  1.00  0.00     0.169 HD
BRANCH   8  11
HETATM   11  C18 4BG A 901      33.507   2.345  -1.230  1.00 19.79     0.332 C 
BRANCH  11  12
HETATM   12  N19 4BG A 901      34.336   3.253  -0.422  1.00 19.67    -0.071 N 
ATOM     13 3H19 4BG A 901      33.886   4.156  -0.272  1.00  0.00     0.274 HD
ATOM     14 2H19 4BG A 901      34.396   2.957   0.552  1.00  0.00     0.274 HD
ATOM     15 1H19 4BG A 901      35.255   3.347  -0.854  1.00  0.00     0.274 HD
ENDBRANCH  11  12
ENDBRANCH   8  11
ENDBRANCH   6   7
BRANCH   1  16
HETATM   16  O8  4BG A 901      26.142   0.528   0.322  1.00 29.44    -0.347 OA
BRANCH  16  17
HETATM   17  C7  4BG A 901      25.948  -0.026   1.552  1.00 27.59     0.214 C 
BRANCH  17  18
HETATM   18  C6  4BG A 901      24.739   0.432   2.351  1.00 24.66    -0.034 A 
HETATM   19  C1  4BG A 901      24.439  -0.159   3.585  1.00 19.64     0.009 A 
HETATM   20  C2  4BG A 901      23.520   0.449   4.452  1.00 22.23     0.001 A 
HETATM   21  C3  4BG A 901      22.892   1.650   4.084  1.00 25.01     0.000 A 
HETATM   22  C4  4BG A 901      23.174   2.236   2.843  1.00 26.00     0.001 A 
HETATM   23  C5  4BG A 901      24.094   1.628   1.977  1.00 22.86     0.009 A 
ENDBRANCH  17  18
ENDBRANCH  16  17
ENDBRANCH   1  16
TORSDOF 6
