@<TRIPOS>MOLECULE
4afg_ligand_0
30 33 0
SMALL
GASTEIGER


@<TRIPOS>ATOM
      1 C01        46.4010   -4.1070   13.8550 C.3     425 QMR1214     0.0000
      2 N02        44.9110   -4.2010   13.9650 N.4     425 QMR1214     1.0000
      3 C06        46.8960   -2.7320   13.7010 C.3     425 QMR1214     0.0000
      4 H011       46.7295   -4.6864   12.9796 H       425 QMR1214     0.0000
      5 H012       46.8514   -4.5304   14.7649 H       425 QMR1214     0.0000
      6 C03        44.1410   -3.2140   13.0450 C.3     425 QMR1214     0.0000
      7 H021       44.6493   -4.0026   14.9939 H       425 QMR1214     0.0000
      8 H022       44.6310   -5.2127   13.7110 H       425 QMR1214     0.0000
      9 C05        46.2280   -2.1000   12.5880 C.3     425 QMR1214     0.0000
     10 C07        46.2420   -1.9610   14.6730 C.ar    425 QMR1214     0.0000
     11 H06        47.9925   -2.6458   13.6879 H       425 QMR1214     0.0000
     12 C04        44.8150   -1.9330   12.9480 C.3     425 QMR1214     0.0000
     13 H031       43.1331   -3.0266   13.4439 H       425 QMR1214     0.0000
     14 H032       44.0622   -3.6227   12.0268 H       425 QMR1214     0.0000
     15 H051       46.6880   -1.1205   12.3904 H       425 QMR1214     0.0000
     16 H052       46.3198   -2.7351   11.6946 H       425 QMR1214     0.0000
     17 C08        46.6940   -1.6410   15.9850 C.ar    425 QMR1214     0.0000
     18 C16        45.0140   -1.4680   14.2640 C.ar    425 QMR1214     0.0000
     19 H04        44.2905   -1.2170   12.2981 H       425 QMR1214     0.0000
     20 C09        45.8900   -0.8330   16.8420 C.ar    425 QMR1214     0.0000
     21 H08        47.6511   -2.0123   16.3330 H       425 QMR1214     0.0000
     22 C15        44.2240   -0.6500   15.1330 C.ar    425 QMR1214     0.0000
     23 C14        44.6970   -0.3640   16.4370 C.ar    425 QMR1214     0.0000
     24 N10        46.3530   -0.5080   18.1260 N.ar    425 QMR1214     0.0000
     25 H15        43.2730   -0.2533   14.7965 H       425 QMR1214     0.0000
     26 N13        43.9070    0.4430   17.2880 N.ar    425 QMR1214     0.0000
     27 C11        45.5860    0.2470   18.9370 C.ar    425 QMR1214     0.0000
     28 C12        44.3510    0.7350   18.5270 C.ar    425 QMR1214     0.0000
     29 H11        45.9413    0.4796   19.9344 H       425 QMR1214     0.0000
     30 H12        43.7520    1.3430   19.1953 H       425 QMR1214     0.0000
@<TRIPOS>BOND
     1    1    2 1
     2    1    3 1
     3    2    6 1
     4    6   12 1
     5   12    9 1
     6   12   18 1
     7    9    3 1
     8    3   10 1
     9   10   17 ar
    10   10   18 ar
    11   17   20 ar
    12   20   23 ar
    13   20   24 ar
    14   24   27 ar
    15   27   28 ar
    16   28   26 ar
    17   26   23 ar
    18   23   22 ar
    19   22   18 ar
    20   17   21 1
    21   22   25 1
    22   27   29 1
    23   28   30 1
    24    1    4 1
    25    1    5 1
    26    2    7 1
    27    2    8 1
    28    6   13 1
    29    6   14 1
    30   12   19 1
    31    9   15 1
    32    9   16 1
    33    3   11 1
@<TRIPOS>SUBSTRUCTURE
@<TRIPOS>COMMENT


