@<TRIPOS>MOLECULE
../3chq_ligand_1
44 45 1
SMALL
GASTEIGER


@<TRIPOS>ATOM
      1 C21         8.1650   38.3260   72.1190 C.ar    613 4BQ901      0.0000
      2 C20         7.6940   37.4990   71.0780 C.ar    613 4BQ901      0.0000
      3 C22         8.8530   37.7620   73.2080 C.ar    613 4BQ901      0.0000
      4 H21         7.9966   39.3961   72.0796 H       613 4BQ901      0.0000
      5 C25         7.9100   36.1130   71.1390 C.ar    613 4BQ901      0.0000
      6 C19         7.0270   38.0450   69.9710 C.3     613 4BQ901      0.0000
      7 C23         9.0680   36.3750   73.2630 C.ar    613 4BQ901      0.0000
      8 H22         9.2179   38.3984   74.0061 H       613 4BQ901      0.0000
      9 C24         8.5960   35.5500   72.2280 C.ar    613 4BQ901      0.0000
     10 H25         7.5458   35.4745   70.3423 H       613 4BQ901      0.0000
     11 O18         6.7690   39.4780   69.8650 O.3     613 4BQ901      0.0000
     12 H191        6.0548   37.5316   69.9358 H       613 4BQ901      0.0000
     13 H192        7.6278   37.7528   69.0971 H       613 4BQ901      0.0000
     14 H23         9.5977   35.9413   74.1034 H       613 4BQ901      0.0000
     15 H24         8.7612   34.4795   72.2699 H       613 4BQ901      0.0000
     16 C15         7.6750   40.1960   69.0960 C.ar    613 4BQ901      0.0000
     17 C16         8.7890   39.5920   68.4610 C.ar    613 4BQ901      0.0000
     18 C14         7.4770   41.5780   68.9540 C.ar    613 4BQ901      0.0000
     19 C17         9.6850   40.3750   67.7080 C.ar    613 4BQ901      0.0000
     20 H16         8.9517   38.5244   68.5553 H       613 4BQ901      0.0000
     21 C13         8.3700   42.3580   68.1990 C.ar    613 4BQ901      0.0000
     22 H14         6.6258   42.0493   69.4319 H       613 4BQ901      0.0000
     23 C12         9.4830   41.7690   67.5750 C.ar    613 4BQ901      0.0000
     24 H17        10.5357   39.9063   67.2267 H       613 4BQ901      0.0000
     25 H13         8.1986   43.4235   68.0971 H       613 4BQ901      0.0000
     26 N10        10.3820   42.5930   66.9750 N.am    613 4BQ901      0.0000
     27 C8         11.5730   42.2220   66.4620 C.2     613 4BQ901      0.0000
     28 H10        10.1388   43.5606   66.9079 H       613 4BQ901      0.0000
     29 C7         12.3620   43.3750   65.8280 C.3     613 4BQ901      0.0000
     30 O9         12.0710   41.0950   66.5570 O.2     613 4BQ901      0.0000
     31 C6         13.8740   43.1050   65.8300 C.3     613 4BQ901      0.0000
     32 H71        12.1641   44.2955   66.3968 H       613 4BQ901      0.0000
     33 H72        12.0254   43.5065   64.7891 H       613 4BQ901      0.0000
     34 C4         14.3560   42.3320   64.5840 C.3     613 4BQ901      0.0000
     35 H61        14.1207   42.5164   66.7259 H       613 4BQ901      0.0000
     36 H62        14.3994   44.0706   65.8695 H       613 4BQ901      0.0000
     37 N5         13.5010   41.1600   64.3220 N.4     613 4BQ901      1.0000
     38 C2         15.7790   41.8500   64.8450 C.2     613 4BQ901      0.0000
     39 H4         14.3512   43.0066   63.7151 H       613 4BQ901      0.0000
     40 H51        14.1148   40.2737   64.2580 H       613 4BQ901      0.0000
     41 H52        12.7885   41.0472   65.1258 H       613 4BQ901      0.0000
     42 H53        12.9733   41.3005   63.3902 H       613 4BQ901      0.0000
     43 O3         16.7070   42.4790   64.3010 O.co2   613 4BQ901     -0.5000
     44 O1         15.9050   40.8690   65.6020 O.co2   613 4BQ901     -0.5000
@<TRIPOS>BOND
     1    1    2 ar
     2    1    3 ar
     3    3    7 ar
     4    7    9 ar
     5    9    5 ar
     6    5    2 ar
     7    2    6 1
     8    6   11 1
     9   11   16 1
    10   16   17 ar
    11   16   18 ar
    12   17   19 ar
    13   19   23 ar
    14   18   21 ar
    15   21   23 ar
    16   23   26 1
    17   26   27 am
    18   27   29 1
    19   27   30 2
    20   29   31 1
    21   31   34 1
    22   34   37 1
    23   34   38 1
    24   38   43 ar
    25   38   44 ar
    26    1    4 1
    27    3    8 1
    28    7   14 1
    29    9   15 1
    30    5   10 1
    31   17   20 1
    32   19   24 1
    33   18   22 1
    34   21   25 1
    35   29   32 1
    36   29   33 1
    37   31   35 1
    38   31   36 1
    39   34   39 1
    40   37   40 1
    41   37   41 1
    42   37   42 1
    43   26   28 1
    44    6   12 1
    45    6   13 1
@<TRIPOS>SUBSTRUCTURE
613 4BQ901 1
@<TRIPOS>COMMENT


