@<TRIPOS>MOLECULE
../3chr_ligand_0
42 43 1
SMALL
GASTEIGER


@<TRIPOS>ATOM
      1 N1         13.4230   40.4570   63.4290 N.4     613 4BS613      1.0000
      2 C2         13.7260   41.8570   63.1620 C.3     613 4BS613      0.0000
      3 H11        14.3433   39.8957   63.4950 H       613 4BS613      0.0000
      4 H12        12.8847   40.3767   64.3619 H       613 4BS613      0.0000
      5 H13        12.8164   40.0609   62.6281 H       613 4BS613      0.0000
      6 C3         13.4320   42.6790   64.4060 C.3     613 4BS613      0.0000
      7 H21        13.1034   42.1981   62.3217 H       613 4BS613      0.0000
      8 H22        14.7883   41.9417   62.8893 H       613 4BS613      0.0000
      9 C4         11.9480   42.8780   64.6800 C.3     613 4BS613      0.0000
     10 H31        13.8976   43.6681   64.2843 H       613 4BS613      0.0000
     11 H32        13.8787   42.1675   65.2714 H       613 4BS613      0.0000
     12 C5         11.2950   41.7490   65.4240 C.2     613 4BS613      0.0000
     13 H41        11.4278   42.9941   63.7178 H       613 4BS613      0.0000
     14 H42        11.8229   43.7932   65.2772 H       613 4BS613      0.0000
     15 O6         11.8400   40.6740   65.5910 O.2     613 4BS613      0.0000
     16 N7         10.0890   42.0370   65.8820 N.am    613 4BS613      0.0000
     17 C9          9.3340   41.1650   66.5840 C.ar    613 4BS613      0.0000
     18 H7          9.7168   42.9470   65.6993 H       613 4BS613      0.0000
     19 C10         9.5880   39.7840   66.6700 C.ar    613 4BS613      0.0000
     20 C14         8.2770   41.7090   67.2870 C.ar    613 4BS613      0.0000
     21 C11         8.8010   38.9750   67.4850 C.ar    613 4BS613      0.0000
     22 H10        10.3999   39.3480   66.0993 H       613 4BS613      0.0000
     23 C13         7.5060   40.9060   68.0960 C.ar    613 4BS613      0.0000
     24 H14         8.0551   42.7666   67.2017 H       613 4BS613      0.0000
     25 C12         7.7470   39.5430   68.1830 C.ar    613 4BS613      0.0000
     26 H11         9.0098   37.9149   67.5725 H       613 4BS613      0.0000
     27 H13         6.6998   41.3445   68.6728 H       613 4BS613      0.0000
     28 O15         6.8960   38.8520   69.0010 O.3     613 4BS613      0.0000
     29 C16         6.9170   37.4700   69.3580 C.3     613 4BS613      0.0000
     30 C17         7.8420   36.9830   70.4780 C.ar    613 4BS613      0.0000
     31 H161        7.1813   36.9414   68.4302 H       613 4BS613      0.0000
     32 H162        5.8787   37.2322   69.6324 H       613 4BS613      0.0000
     33 C22         8.0850   35.6180   70.5010 C.ar    613 4BS613      0.0000
     34 C18         8.4390   37.7700   71.4790 C.ar    613 4BS613      0.0000
     35 C21         8.8760   35.0220   71.4640 C.ar    613 4BS613      0.0000
     36 H22         7.6376   34.9954   69.7347 H       613 4BS613      0.0000
     37 C19         9.2480   37.1870   72.4510 C.ar    613 4BS613      0.0000
     38 H18         8.2678   38.8403   71.4941 H       613 4BS613      0.0000
     39 C20         9.4650   35.8050   72.4430 C.ar    613 4BS613      0.0000
     40 H21         9.0345   33.9497   71.4536 H       613 4BS613      0.0000
     41 H19         9.7095   37.8039   73.2136 H       613 4BS613      0.0000
     42 H20        10.0919   35.3485   73.2004 H       613 4BS613      0.0000
@<TRIPOS>BOND
     1    1    2 1
     2    2    6 1
     3    6    9 1
     4    9   12 1
     5   12   15 2
     6   12   16 am
     7   16   17 1
     8   17   19 ar
     9   17   20 ar
    10   19   21 ar
    11   21   25 ar
    12   25   23 ar
    13   25   28 1
    14   23   20 ar
    15   28   29 1
    16   29   30 1
    17   30   33 ar
    18   30   34 ar
    19   34   37 ar
    20   37   39 ar
    21   39   35 ar
    22   35   33 ar
    23   19   22 1
    24   21   26 1
    25   23   27 1
    26   20   24 1
    27   34   38 1
    28   37   41 1
    29   39   42 1
    30   35   40 1
    31   33   36 1
    32    1    3 1
    33    1    4 1
    34    1    5 1
    35    2    7 1
    36    2    8 1
    37    6   10 1
    38    6   11 1
    39    9   13 1
    40    9   14 1
    41   16   18 1
    42   29   31 1
    43   29   32 1
@<TRIPOS>SUBSTRUCTURE
613 4BS613 1
@<TRIPOS>COMMENT


